_cell_length_a                  5.0
_cell_length_b                  5.0
_cell_length_c                  5.0
_cell_angle_alpha               90.0
_cell_angle_beta                90.0
_cell_angle_gamma               90.0
_symmetry_space_group_name_H-M 'P 1'
_symmetry_Int_Tables_number    '1'

loop_
_atom_site_label
_atom_site_type_symbol
_atom_site_fract_x
_atom_site_fract_y
_atom_site_fract_z
0 O1 84.60046599042762 8.42704522824369 92.04674910513017
1 O2 85.77820638677726 1.929924902096447 86.72736917532704
2 O3 88.77991532072403 96.1004233964128 83.8995766035872
3 O4 93.77820638677828 91.00172167182195 83.79916594505052
4 O5 0.6004659904296661 86.5706387676947 86.19034264457713
5 O6 7.953250894870001 84.6004659904278 91.57295477175616
6 O7 13.27263082466903 85.7782063867733 98.07007509790749
7 O8 16.10042339640585 88.77991532071708 3.899576603594157
8 O9 16.20083405494075 93.77820638676953 8.998278328186782
9 O10 13.80965735541344 0.600465990420207 13.429361232314774
10 O11 8.427045228235563 7.953250894861741 15.399534009580496
11 O12 1.9299249020869214 13.272630824663434 14.221793613232304
12 O13 96.10042339640333 16.10042339640332 11.220084679285458
13 O14 91.00172167181418 16.200834054941726 6.221793613229526
14 O15 86.57063876769013 13.809657355418281 99.39953400957494
15 O16 77.44487305344393 93.59659156876312 95.06070250866037
16 O17 80.44658198739072 87.76709006307945 92.23290993692055
17 O18 85.44487305344494 82.66838833848863 92.13249927838385
18 O19 92.26713265709633 78.23730543436135 94.52367597791047
19 O20 4.939297491335726 77.44487305343998 6.40340843124082
20 O21 7.767090063072546 80.44658198738375 12.232909936927488
21 O22 7.867500721607401 85.4448730534362 17.331611661520128
22 O23 5.476324022080092 92.26713265708688 21.7626945656481
23 O24 93.5965915687536 4.939297491330086 22.55512694656563
24 O25 87.76709006306999 7.767090063069992 19.553418012618806
25 O26 82.66838833848085 7.867500721608378 14.555126946562858
26 O27 78.23730543435677 5.476324022084977 7.732867342908268
27 O28 67.93379932376095 91.760378561577 8.713415771796845
28 O29 69.11153972011058 85.26325823542979 3.394035841993709
29 O30 72.11324865405736 79.43375672974614 0.56624327025388
30 O31 77.1115397201116 74.33505500515528 0.4658326117171874
31 O32 83.933799323763 69.90397210102802 2.857009311243802
32 O33 91.28658422820332 67.93379932376112 8.239621438422839
33 O34 96.60596415800238 69.11153972010663 14.736741764574157
34 O35 99.4337567297392 72.11324865405044 20.566243270260827
35 O36 99.53416738827407 77.11153972010285 25.664944994853457
36 O37 97.14299068874676 83.93379932375355 30.096027898981426
37 O38 91.76037856156891 91.28658422819507 32.06620067624715
38 O39 85.26325823542025 96.60596415799677 30.88846027989898
39 O40 79.43375672973664 99.43375672973666 27.88675134595213
40 O41 74.33505500514751 99.53416738827505 22.888460279896194
41 O42 69.90397210102344 97.14299068875162 16.066200676241603
42 O43 59.60046599042762 83.42704522824367 17.046749105130175
43 O44 60.778206386777256 76.92992490209645 11.727369175327041
44 O45 63.77991532072404 71.1004233964128 8.899576603587212
45 O46 68.77820638677828 66.00172167182195 8.799165945050518
46 O47 75.60046599042967 61.570638767694696 11.190342644577134
47 O48 82.95325089487 59.6004659904278 16.572954771756166
48 O49 88.27263082466904 60.778206386773306 23.070075097907488
49 O50 91.10042339640587 63.77991532071709 28.899576603594156
50 O51 91.20083405494074 68.77820638676953 33.998278328186785
51 O52 88.80965735541344 75.6004659904202 38.429361232314776
52 O53 83.42704522823558 82.95325089486172 40.39953400958049
53 O54 76.92992490208692 88.27263082466344 39.2217936132323
54 O55 71.10042339640333 91.10042339640331 36.220084679285456
55 O56 66.00172167181418 91.20083405494171 31.221793613229526
56 O57 61.57063876769012 88.80965735541831 24.399534009574936
57 O58 51.267132657094294 75.09371189491034 25.380082438463514
58 O59 52.44487305344391 68.59659156876312 20.060702508660377
59 O60 55.44658198739069 62.76709006307946 17.23290993692055
60 O61 60.44487305344494 57.66838833848863 17.13249927838385
61 O62 67.26713265709633 53.237305434361346 19.52367597791047
62 O63 74.61991756153667 51.26713265709445 24.9062881050895
63 O64 79.93929749133571 52.44487305343998 31.403408431240827
64 O65 82.76709006307253 55.44658198738376 37.23290993692749
65 O66 82.86750072160741 60.44487305343619 42.33161166152013
66 O67 80.47632402208009 67.26713265708688 46.7626945656481
67 O68 75.09371189490224 74.6199175615284 48.73286734291382
68 O69 68.59659156875358 79.9392974913301 47.55512694656563
69 O70 62.767090063069986 82.76709006306999 44.553418012618806
70 O71 57.66838833848086 82.86750072160838 39.55512694656286
71 O72 53.23730543435678 80.47632402208497 32.73286734290827
72 O73 42.93379932376096 66.760378561577 33.713415771796846
73 O74 44.11153972011057 60.26325823542978 28.39403584199371
74 O75 47.11324865405735 54.43375672974612 25.56624327025388
75 O76 58.93379932376299 44.90397210102803 27.857009311243804
76 O77 66.28658422820332 42.933799323761114 33.23962143842284
77 O78 71.60596415800238 44.11153972010664 39.736741764574155
78 O79 74.4337567297392 47.11324865405042 45.56624327026083
79 O80 72.14299068874676 58.93379932375355 55.09602789898144
80 O81 66.76037856156891 66.28658422819507 57.066200676247156
81 O82 60.263258235420246 71.60596415799677 55.888460279898965
82 O83 54.43375672973665 74.43375672973666 52.886751345952135
83 O84 44.903972101023456 72.14299068875162 41.06620067624161
84 O85 41.06620067624163 44.903972101023456 72.14299068875161
85 O86 52.886751345952135 54.43375672973667 74.43375672973663
86 O87 55.888460279898965 60.26325823542027 71.60596415799674
87 O88 57.06620067624715 66.76037856156893 66.28658422819504
88 O89 55.09602789898144 72.14299068874678 58.93379932375351
89 O90 50.66494499485346 74.5341673882741 52.11153972010284
90 O91 45.56624327026082 74.43375672973922 47.11324865405042
91 O92 39.736741764574155 71.6059641580024 44.11153972010664
92 O93 33.23962143842283 66.28658422820332 42.933799323761114
93 O94 27.857009311243797 58.93379932376301 44.90397210102803
94 O95 25.566243270253896 47.11324865405735 54.433756729746094
95 O96 28.394035841993738 44.11153972011061 60.26325823542975
96 O97 33.713415771796875 42.93379932376098 66.76037856157699
97 O98 32.73286734290828 53.237305434356784 80.47632402208495
98 O99 39.555126946562865 57.66838833848086 82.86750072160837
99 O100 44.553418012618806 62.76709006307 82.76709006306999
100 O101 47.55512694656563 68.59659156875358 79.93929749133008
101 O102 48.73286734291384 75.09371189490226 74.61991756152838
102 O103 46.76269456564812 80.47632402208009 67.26713265708686
103 O104 42.33161166152013 82.86750072160741 60.444873053436176
104 O105 37.23290993692751 82.76709006307253 55.446581987383745
105 O106 31.403408431240855 79.93929749133571 52.44487305343996
106 O107 24.906288105089523 74.61991756153667 51.267132657094436
107 O108 19.523675977910493 67.26713265709634 53.23730543436134
108 O109 17.13249927838385 60.44487305344494 57.66838833848862
109 O110 17.23290993692057 55.44658198739069 62.76709006307944
110 O111 20.060702508660366 52.44487305344392 68.5965915687631
111 O112 25.380082438463525 51.26713265709431 75.09371189491031
112 O113 24.39953400957493 61.570638767690134 88.80965735541828
113 O114 31.221793613229522 66.0017216718142 91.20083405494171
114 O115 36.220084679285456 71.10042339640333 91.10042339640331
115 O116 39.22179361323232 76.92992490208694 88.27263082466341
116 O117 40.39953400958049 83.42704522823558 82.95325089486172
117 O118 38.429361232314776 88.80965735541344 75.60046599042019
118 O119 33.998278328186785 91.20083405494076 68.7782063867695
119 O120 28.89957660359417 91.10042339640587 63.77991532071707
120 O121 23.070075097907505 88.27263082466905 60.778206386773284
121 O122 16.572954771756176 82.95325089487 59.600465990427786
122 O123 11.190342644577145 75.60046599042968 61.57063876769469
123 O124 8.799165945050525 68.77820638677828 66.00172167182194
124 O125 8.899576603587223 63.779915320724044 71.10042339641278
125 O126 11.727369175327041 60.77820638677727 76.92992490209645
126 O127 17.046749105130175 59.60046599042763 83.42704522824367
127 O128 16.06620067624163 69.90397210102346 97.14299068875162
128 O129 22.888460279896194 74.33505500514752 99.53416738827502
129 O130 27.886751345952156 79.43375672973666 99.43375672973664
130 O131 30.88846027989898 85.26325823542027 96.60596415799675
131 O132 32.06620067624715 91.76037856156893 91.28658422819504
132 O133 30.096027898981426 97.14299068874676 83.93379932375352
133 O134 25.664944994853478 99.53416738827408 77.11153972010285
134 O135 20.56624327026084 99.43375672973922 72.11324865405042
135 O136 14.736741764574157 96.60596415800238 69.1115397201066
136 O137 8.239621438422851 91.28658422820334 67.93379932376111
137 O138 2.8570093112437966 83.933799323763 69.903972101028
138 O139 0.4658326117171985 77.11153972011161 74.33505500515527
139 O140 0.5662432702538744 72.11324865405737 79.43375672974611
140 O141 3.3940358419937144 69.1115397201106 85.26325823542977
141 O142 8.713415771796829 67.93379932376095 91.760378561577
142 O143 7.732867342908278 78.23730543435678 5.476324022084955
143 O144 14.555126946562869 82.66838833848087 7.867500721608378
144 O145 19.553418012618806 87.76709006307 7.767090063069981
145 O146 22.55512694656563 93.5965915687536 4.939297491330086
146 O147 21.762694565648122 5.476324022080115 92.26713265708686
147 O148 17.331611661520128 7.867500721607423 85.44487305343618
148 O149 12.232909936927516 7.767090063072546 80.44658198738374
149 O150 6.403408431240809 4.939297491335726 77.44487305343996
150 O151 94.52367597791049 92.26713265709634 78.23730543436133
151 O152 92.13249927838386 85.44487305344495 82.66838833848863
152 O153 92.23290993692055 80.44658198739072 87.76709006307945
153 O154 95.06070250866038 77.44487305344394 93.5965915687631
154 O155 99.39953400957494 86.57063876769013 13.809657355418281
155 O156 6.22179361322952 91.0017216718142 16.200834054941705
156 O157 11.220084679285458 96.10042339640333 16.10042339640332
157 O158 15.399534009580496 8.427045228235585 7.953250894861719
158 O159 13.429361232314774 13.80965735541344 0.6004659904201959
159 O160 8.998278328186782 16.200834054940792 93.77820638676951
160 O161 3.899576603594168 16.100423396405894 88.77991532071707
161 O162 98.07007509790752 13.272630824669074 85.77820638677328
162 O163 91.57295477175617 7.953250894870001 84.60046599042778
163 O164 83.79916594505053 93.7782063867783 91.00172167182194
164 O165 83.8995766035872 88.77991532072406 96.10042339641278
165 O166 86.72736917532704 85.77820638677728 1.9299249020964249
166 O167 92.04674910513019 84.60046599042764 8.427045228243667
167 O168 72.14299068875161 41.06620067624163 44.903972101023456
168 O169 74.53416738827502 47.888460279896215 49.335055005147524
169 O170 74.43375672973661 52.886751345952135 54.43375672973668
170 O171 71.60596415799672 55.888460279898965 60.26325823542028
171 O172 66.28658422819503 57.066200676247156 66.76037856156893
172 O173 58.9337993237535 55.09602789898144 72.14299068874679
173 O174 52.11153972010282 50.664944994853464 74.53416738827411
174 O175 47.11324865405042 45.56624327026082 74.43375672973922
175 O176 44.11153972010664 39.736741764574155 71.6059641580024
176 O177 42.933799323761114 33.23962143842283 66.28658422820335
177 O178 44.90397210102801 27.857009311243797 58.933799323763026
178 O179 54.43375672974607 25.56624327025392 47.11324865405736
179 O180 60.26325823542975 28.39403584199376 44.111539720110606
180 O181 66.76037856157696 33.713415771796875 42.93379932376098
181 O182 80.47632402208497 32.73286734290828 53.23730543435678
182 O183 82.86750072160838 39.555126946562865 57.66838833848086
183 O184 82.76709006306999 44.553418012618806 62.76709006307
184 O185 79.9392974913301 47.55512694656563 68.59659156875358
185 O186 74.6199175615284 48.73286734291384 75.09371189490224
186 O187 67.26713265708688 46.76269456564812 80.47632402208009
187 O188 60.444873053436176 42.33161166152015 82.8675007216074
188 O189 55.446581987383745 37.23290993692751 82.76709006307253
189 O190 52.44487305343996 31.403408431240855 79.93929749133571
190 O191 51.267132657094436 24.906288105089523 74.61991756153667
191 O192 53.23730543436134 19.523675977910493 67.26713265709633
192 O193 57.66838833848862 17.13249927838385 60.44487305344494
193 O194 62.76709006307944 17.23290993692057 55.4465819873907
194 O195 68.59659156876312 20.060702508660366 52.44487305344391
195 O196 75.09371189491034 25.380082438463525 51.26713265709431
196 O197 88.80965735541831 24.39953400957493 61.570638767690134
197 O198 91.20083405494171 31.221793613229522 66.0017216718142
198 O199 91.10042339640331 36.220084679285456 71.10042339640333
199 O200 88.27263082466342 39.2217936132323 76.92992490208694
200 O201 82.95325089486172 40.39953400958049 83.42704522823558
201 O202 75.60046599042019 38.429361232314776 88.80965735541344
202 O203 68.77820638676951 33.998278328186785 91.20083405494077
203 O204 63.77991532071707 28.89957660359417 91.10042339640587
204 O205 60.778206386773284 23.070075097907505 88.27263082466905
205 O206 59.600465990427786 16.572954771756176 82.95325089487
206 O207 61.570638767694675 11.190342644577145 75.60046599042967
207 O208 66.00172167182194 8.799165945050502 68.77820638677828
208 O209 71.10042339641278 8.899576603587223 63.779915320724044
209 O210 76.92992490209643 11.727369175327041 60.77820638677727
210 O211 83.42704522824366 17.046749105130175 59.60046599042763
211 O212 97.14299068875162 16.066200676241603 69.90397210102346
212 O213 99.53416738827502 22.888460279896194 74.33505500514752
213 O214 99.43375672973664 27.88675134595213 79.43375672973667
214 O215 96.60596415799675 30.88846027989898 85.26325823542027
215 O216 91.28658422819505 32.06620067624715 91.76037856156893
216 O217 83.93379932375353 30.096027898981426 97.14299068874678
217 O218 77.11153972010284 25.664944994853478 99.5341673882741
218 O219 72.1132486540504 20.56624327026084 99.4337567297392
219 O220 69.1115397201066 14.736741764574157 96.60596415800238
220 O221 67.9337993237611 8.239621438422851 91.28658422820335
221 O222 69.903972101028 2.8570093112437966 83.933799323763
222 O223 74.33505500515525 0.4658326117171985 77.11153972011162
223 O224 79.43375672974611 0.5662432702538744 72.11324865405737
224 O225 85.26325823542976 3.3940358419937144 69.1115397201106
225 O226 91.760378561577 8.713415771796829 67.93379932376097
226 O227 5.476324022084933 7.732867342908278 78.2373054343568
227 O228 7.867500721608378 14.555126946562869 82.66838833848087
228 O229 7.76709006306997 19.553418012618806 87.76709006307001
229 O230 4.939297491330086 22.55512694656563 93.59659156875362
230 O231 92.26713265708685 21.762694565648122 5.476324022080115
231 O232 85.44487305343617 17.331611661520128 7.867500721607435
232 O233 80.44658198738374 12.232909936927516 7.767090063072546
233 O234 77.44487305343995 6.4034084312408535 4.939297491335736
234 O235 78.23730543436132 94.52367597791049 92.26713265709635
235 O236 82.6683883384886 92.13249927838386 85.44487305344497
236 O237 87.76709006307944 92.23290993692054 80.44658198739073
237 O238 93.5965915687631 95.06070250866037 77.44487305344396
238 O239 13.809657355418281 99.39953400957494 86.57063876769016
239 O240 16.20083405494168 6.22179361322952 91.00172167181422
240 O241 16.100423396403297 11.220084679285458 96.10042339640334
241 O242 7.9532508948616965 15.399534009580496 8.427045228235608
242 O243 93.7782063867695 8.998278328186782 16.20083405494077
243 O244 88.77991532071705 3.899576603594168 16.100423396405894
244 O245 85.77820638677326 98.07007509790752 13.272630824669063
245 O246 84.60046599042776 91.57295477175617 7.953250894870023
246 O247 91.00172167182193 83.79916594505053 93.7782063867783
247 O248 96.10042339641276 83.89957660358722 88.77991532072407
248 O249 8.427045228243646 92.04674910513017 84.60046599042765
249 O250 15.399534009572369 91.57295477175637 92.04674910513016
250 O251 11.220084679275955 3.8995766035872848 83.8995766035872
251 O252 6.221793613221727 8.998278328178122 83.79916594505052
252 O253 92.04674910513 15.39953400957228 91.57295477175617
253 O254 83.89957660359413 11.220084679282971 3.899576603594146
254 O255 83.79916594505926 6.22179361323052 8.998278328186792
255 O256 91.57295477176442 92.04674910513832 15.399534009580496
256 O257 3.8995766035966994 83.89957660359673 11.220084679285447
257 O258 8.998278328185805 83.79916594505833 6.22179361322951
258 O259 22.55512694655608 6.4034084312369455 95.06070250866036
259 O260 19.553418012609303 12.232909936920588 92.23290993692052
260 O261 14.555126946555053 17.331611661511424 92.13249927838385
261 O262 7.73286734290366 21.762694565638707 94.52367597791047
262 O263 95.06070250866428 22.55512694656008 6.403408431240831
263 O264 92.23290993692747 19.553418012616277 12.232909936927495
264 O265 92.13249927839259 14.555126946563846 17.331611661520128
265 O266 94.52367597791991 7.732867342913163 21.7626945656481
266 O267 6.403408431246405 95.06070250866995 22.55512694656563
267 O268 12.232909936930024 92.23290993693007 19.553418012618796
268 O269 17.331611661519155 92.13249927839165 14.555126946562858
269 O270 21.762694565643237 94.52367597791508 7.732867342908256
270 O271 32.06620067623906 8.23962143842305 8.713415771796829
271 O272 30.88846027988943 14.736741764570272 3.3940358419936922
272 O273 27.88675134594265 20.566243270253935 0.5662432702538744
273 O274 22.8884602798884 25.664944994844774 0.46583261171717627
274 O275 16.06620067623701 30.096027898972032 2.8570093112437966
275 O276 8.713415771796672 32.066200676238935 8.239621438422828
276 O277 3.3940358419976446 30.888460279893426 14.736741764574157
277 O278 0.5662432702608244 27.886751345949623 20.56624327026084
278 O279 0.46583261172594703 22.888460279897195 25.664944994853467
279 O280 2.8570093112532557 16.06620067624651 30.096027898981426
280 O281 8.239621438431088 8.713415771804979 32.066200676247156
281 O282 14.736741764579753 3.3940358420032846 30.88846027989899
282 O283 20.56624327026335 0.566243270263378 27.88675134595213
283 O284 25.6649449948525 0.46583261172501444 22.888460279896183
284 O285 30.096027898976587 2.857009311248415 16.066200676241593
285 O286 40.39953400957241 16.572954771756354 17.046749105130175
286 O287 39.22179361322278 23.070075097903597 11.727369175327018
287 O288 36.220084679276 28.899576603587242 8.8995766035872
288 O289 31.22179361322175 33.998278328178124 8.799165945050492
289 O290 24.399534009570356 38.42936123230536 11.190342644577122
290 O291 17.046749105129997 40.399534009572236 16.572954771756176
291 O292 11.72736917533097 39.22179361322675 23.070075097907516
292 O293 8.89957660359415 36.22008467928297 28.89957660359417
293 O294 8.79916594505925 31.22179361323052 33.99827832818679
294 O295 11.190342644586604 24.39953400957984 38.429361232314776
295 O296 16.572954771764458 17.046749105138325 40.399534009580506
296 O297 23.0700750979131 11.72736917533661 39.2217936132323
297 O298 28.8995766035967 8.899576603596726 36.220084679285456
298 O299 33.99827832818585 8.799165945058318 31.221793613229522
299 O300 38.42936123230989 11.190342644581719 24.399534009574943
300 O301 48.73286734290574 24.9062881050897 25.380082438463504
301 O302 47.55512694655613 31.403408431236947 20.060702508660356
302 O303 44.55341801260935 37.23290993692059 17.23290993692055
303 O304 39.5551269465551 42.331611661511424 17.13249927838385
304 O305 32.7328673429037 46.76269456563871 19.52367597791047
305 O306 25.380082438463347 48.73286734290561 24.90628810508949
306 O307 20.06070250866432 47.55512694656008 31.40340843124083
307 O308 17.2329099369275 44.55341801261628 37.23290993692749
308 O309 17.132499278392643 39.555126946563846 42.33161166152015
309 O310 19.52367597791995 32.73286734291317 46.76269456564811
310 O311 24.906288105097786 25.380082438471653 48.73286734291382
311 O312 31.403408431246447 20.06070250866996 47.55512694656563
312 O313 37.23290993693005 17.232909936930028 44.553418012618806
313 O314 42.331611661519176 17.132499278391666 39.555126946562844
314 O315 46.76269456564328 19.52367597791507 32.732867342908264
315 O316 57.06620067623904 33.23962143842307 33.71341577179688
316 O317 55.888460279889415 39.7367417645703 28.394035841993748
317 O318 52.88675134594266 45.566243270253935 25.56624327025392
318 O319 47.8884602798884 50.66494499484474 25.465832611717165
319 O320 41.06620067623701 55.09602789897201 27.857009311243797
320 O321 33.7134157717967 57.06620067623891 33.239621438422816
321 O322 28.39403584199762 55.88846027989338 39.73674176457415
322 O323 25.566243270260824 52.88675134594962 45.566243270260806
323 O324 25.4658326117259 47.88846027989722 50.66494499485346
324 O325 27.857009311253233 41.06620067624653 55.09602789898141
325 O326 33.23962143843109 33.713415771805 57.066200676247135
326 O327 39.736741764579754 28.394035842003305 55.88846027989896
327 O328 45.56624327026335 25.56624327026342 52.886751345952106
328 O329 50.664944994852505 25.465832611725013 47.88846027989623
329 O330 55.096027898976565 27.857009311248415 41.066200676241635
330 O331 5.0960278989765575 77.85700931124842 8.933799323758363
331 O332 0.6649449948524899 75.465832611725 2.111539720103772
332 O333 95.56624327026333 75.5662432702634 97.1132486540479
333 O334 89.73674176457973 78.39403584200329 94.11153972010105
334 O335 83.23962143843107 83.713415771805 92.93379932375287
335 O336 77.85700931125322 91.06620067624652 94.90397210101858
336 O337 75.4658326117259 97.8884602798972 99.33505500514654
337 O338 75.56624327026081 2.886751345949612 4.433756729739191
338 O339 78.39403584199762 5.888460279893371 10.263258235425853
339 O340 83.71341577179669 7.066200676238898 16.760378561577184
340 O341 91.066200676237 5.096027898972 22.142990688756203
341 O342 97.88846027988839 0.6649449948447295 24.534167388282835
342 O343 2.886751345942651 95.56624327025393 24.43375672974608
343 O344 5.888460279889407 89.73674176457027 21.605964158006252
344 O345 7.066200676239031 83.23962143842306 16.286584228203115
345 O346 96.76269456564326 69.52367597791506 17.267132657091732
346 O347 92.33161166151916 67.13249927839165 10.444873053437153
347 O348 87.23290993693003 67.23290993693003 5.446581987381194
348 O349 81.40340843124643 70.06070250866993 2.444873053434371
349 O350 74.90628810509779 75.38008243847163 1.2671326570861785
350 O351 69.52367597791994 82.73286734291315 3.237305434351889
351 O352 67.13249927839261 89.55512694656385 7.668388338479848
352 O353 67.23290993692748 94.55341801261628 12.767090063072505
353 O354 70.06070250866432 97.55512694656007 18.59659156875917
354 O355 75.38008243846335 98.73286734290559 25.09371189491051
355 O356 82.73286734290369 96.76269456563868 30.47632402208953
356 O357 89.55512694655509 92.3316116615114 32.86750072161615
357 O358 94.55341801260933 87.23290993692058 32.76709006307945
358 O359 97.5551269465561 81.40340843123693 29.939297491339644
359 O360 98.73286734290573 74.90628810508969 24.619917561536496
360 O361 88.42936123230989 61.19034264458172 25.600465990425057
361 O362 83.99827832818585 58.79916594505832 18.778206386770478
362 O363 78.89957660359669 58.89957660359671 13.779915320714542
363 O364 73.07007509791308 61.72736917533659 10.778206386767696
364 O365 66.57295477176444 67.04674910513832 9.600465990419494
365 O366 61.19034264458658 74.39953400957982 11.570638767685226
366 O367 58.79916594505925 81.2217936132305 16.001721671813208
367 O368 58.89957660359414 86.22008467928295 21.10042339640583
368 O369 61.72736917533097 89.22179361322674 26.929924902092484
369 O370 67.04674910513 90.39953400957224 33.42704522824383
370 O371 74.39953400957033 88.42936123230535 38.80965735542288
371 O372 81.22179361322172 83.9982783281781 41.20083405494951
372 O373 86.22008467927597 78.89957660358724 41.1004233964128
373 O374 89.22179361322276 73.07007509790358 38.27263082467298
374 O375 90.39953400957239 66.57295477175636 32.953250894869825
375 O376 80.09602789897656 52.85700931124839 33.93379932375841
376 O377 75.6649449948525 50.46583261172499 27.111539720103817
377 O378 70.56624327026336 50.56624327026338 22.11324865404787
378 O379 64.73674176457975 53.39403584200328 19.11153972010101
379 O380 58.23962143843109 58.71341577180497 17.93379932375284
380 O381 52.85700931125324 66.0662006762465 19.903972101018574
381 O382 50.46583261172592 72.88846027989719 24.335055005146533
382 O383 50.56624327026081 77.88675134594962 29.43375672973916
383 O384 53.394035841997635 80.88846027989341 35.263258235425845
384 O385 58.71341577179666 82.06620067623894 41.76037856157717
385 O386 66.066200676237 80.09602789897203 47.1429906887562
386 O387 72.88846027988839 75.66494499484476 49.534167388282825
387 O388 77.88675134594266 70.56624327025392 49.43375672974612
388 O389 80.88846027988942 64.73674176457025 46.60596415800631
389 O390 82.06620067623905 58.23962143842303 41.28658422820317
390 O391 71.76269456564323 44.52367597791507 42.26713265709174
391 O392 67.33161166151915 42.13249927839164 35.44487305343714
392 O393 62.232909936930014 42.232909936930064 30.446581987381204
393 O394 56.403408431246405 45.060702508669934 27.44487305343437
394 O395 44.5236759779199 57.73286734291317 28.2373054343519
395 O396 42.13249927839258 64.55512694656385 32.66838833847987
396 O397 42.23290993692746 69.55341801261628 37.76709006307251
397 O398 45.06070250866427 72.55512694656007 43.596591568759166
398 O399 57.73286734290366 71.7626945656387 55.47632402208953
399 O400 64.55512694655505 67.33161166151142 57.86750072161615
400 O401 69.55341801260928 62.23290993692058 57.76709006307947
401 O402 72.55512694655606 56.403408431236926 54.939297491339644
402 O403 58.99827832818579 33.79916594505833 43.77820638677049
403 O404 53.89957660359668 33.899576603596714 38.77991532071455
404 O405 41.57295477176441 42.0467491051383 34.60046599041951
405 O406 33.79916594505924 56.22179361323051 41.00172167181321
406 O407 33.89957660359412 61.22008467928297 46.10042339640585
407 O408 42.04674910512999 65.39953400957226 58.42704522824383
408 O409 56.22179361322171 58.9982783281781 66.20083405494948
409 O410 61.22008467927594 53.89957660358726 66.1004233964128
410 O411 65.39953400957236 41.572954771756365 57.953250894869846
411 O412 58.42704522824364 42.04674910513017 65.39953400957235
412 O413 46.10042339641275 33.899576603587214 61.220084679275935
413 O414 41.00172167182191 33.799165945050525 56.221793613221706
414 O415 34.60046599042775 41.572954771756166 42.046749105129976
415 O416 35.77820638677325 48.070075097907505 36.727369175330935
416 O417 38.77991532071704 53.89957660359415 33.899576603594106
417 O418 43.77820638676949 58.998278328186785 33.79916594505923
418 O419 57.9532508948617 65.39953400958049 41.572954771764394
419 O420 66.10042339640329 61.220084679285435 53.89957660359666
420 O421 66.20083405494168 56.22179361322951 58.99827832818578
421 O422 63.80965735541826 49.39953400957493 63.429361232309844
422 O423 43.59659156876309 45.060702508660356 72.55512694655604
423 O424 37.76709006307943 42.23290993692053 69.55341801260927
424 O425 32.66838833848858 42.13249927838385 64.55512694655503
425 O426 28.23730543436131 44.52367597791047 57.732867342903646
426 O427 27.444873053439938 56.403408431240834 45.060702508664264
427 O428 30.446581987383723 62.23290993692749 42.232909936927456
428 O429 35.444873053436154 67.33161166152013 42.132499278392565
429 O430 42.26713265708683 71.7626945656481 44.523675977919886
430 O431 49.61991756152837 73.73286734291382 49.90628810509773
431 O432 54.93929749133007 72.55512694656562 56.40340843124638
432 O433 57.76709006306995 69.55341801261879 62.23290993692999
433 O434 57.86750072160836 64.55512694656285 67.33161166151913
434 O435 55.47632402208493 57.73286734290826 71.7626945656432
435 O436 41.760378561576985 58.71341577179683 82.06620067623903
436 O437 35.26325823542975 53.39403584199369 80.8884602798894
437 O438 29.43375672974609 50.56624327025388 77.88675134594263
438 O439 24.335055005155244 50.465832611717175 72.88846027988838
439 O440 19.903972101027986 52.8570093112438 66.066200676237
440 O441 17.933799323761086 58.23962143842284 58.71341577179665
441 O442 19.111539720106595 64.73674176457416 53.39403584199762
442 O443 22.11324865405039 70.56624327026083 50.5662432702608
443 O444 27.11153972010283 75.66494499485346 50.4658326117259
444 O445 33.93379932375352 80.09602789898142 52.85700931125322
445 O446 41.286584228195046 82.06620067624715 58.239621438431065
446 O447 46.60596415799674 80.88846027989898 64.73674176457973
447 O448 49.433756729736636 77.88675134595212 70.56624327026333
448 O449 49.53416738827502 72.88846027989618 75.66494499485248
449 O450 47.14299068875161 66.06620067624159 80.09602789897654
450 O451 33.42704522824364 67.04674910513017 90.39953400957236
451 O452 26.929924902096424 61.72736917532703 89.22179361322273
452 O453 21.100423396412772 58.8995766035872 86.22008467927596
453 O454 16.001721671821926 58.799165945050504 81.22179361322172
454 O455 11.570638767694666 61.190342644577136 74.39953400957033
455 O456 9.60046599042777 66.57295477175617 67.04674910513
456 O457 10.778206386773267 73.0700750979075 61.72736917533095
457 O458 13.779915320717059 78.89957660359417 58.89957660359413
458 O459 18.778206386769504 83.99827832818679 58.79916594505923
459 O460 25.60046599042018 88.42936123231478 61.19034264458656
460 O461 32.95325089486171 90.39953400958049 66.57295477176442
461 O462 38.27263082466341 89.2217936132323 73.07007509791306
462 O463 41.10042339640331 86.22008467928546 78.89957660359667
463 O464 41.2008340549417 81.22179361322951 83.9982783281858
464 O465 38.80965735541829 74.39953400957494 88.42936123230987
465 O466 25.093711894910324 75.3800824384635 98.73286734290569
466 O467 18.596591568763095 70.06070250866037 97.55512694655609
467 O468 12.767090063079436 67.23290993692055 94.5534180126093
468 O469 7.668388338488606 67.13249927838385 89.55512694655506
469 O470 3.237305434361322 69.52367597791047 82.73286734290367
470 O471 1.267132657094422 74.9062881050895 75.38008243846333
471 O472 2.4448730534399528 81.40340843124083 70.06070250866429
472 O473 5.446581987383733 87.2329099369275 67.23290993692747
473 O474 10.444873053436167 92.33161166152014 67.1324992783926
474 O475 17.267132657086854 96.7626945656481 69.52367597791991
475 O476 24.61991756152838 98.73286734291382 74.90628810509776
476 O477 29.939297491330088 97.55512694656562 81.40340843124642
477 O478 32.76709006306998 94.5534180126188 87.23290993693
478 O479 32.86750072160836 89.55512694656285 92.33161166151915
479 O480 30.476324022084956 82.73286734290826 96.76269456564323
480 O481 16.76037856157695 83.71341577179687 7.066200676239021
481 O482 10.26325823542974 78.39403584199374 5.8884602798893955
482 O483 4.433756729746063 75.5662432702539 2.8867513459426397
483 O484 99.33505500515528 75.46583261171716 97.88846027988836
484 O485 94.903972101028 77.85700931124377 91.06620067623697
485 O486 92.93379932376111 83.2396214384228 83.71341577179665
486 O487 94.11153972010663 89.73674176457413 78.3940358419976
487 O488 97.1132486540504 95.5662432702608 75.56624327026078
488 O489 2.111539720102809 0.6649449948534558 75.46583261172589
489 O490 8.933799323753492 5.096027898981426 77.85700931125321
490 O491 16.28658422819501 7.066200676247147 83.23962143843107
491 O492 21.605964157996713 5.888460279898955 89.73674176457972
492 O493 24.433756729736604 2.886751345952121 95.56624327026331
493 O494 24.53416738827501 97.88846027989622 0.6649449948524788
494 O495 22.142990688751595 91.06620067624162 5.096027898976541
495 O496 42.046749105130175 34.60046599042762 41.57295477175633
496 O497 36.72736917532703 35.77820638677727 48.070075097903576
497 O498 33.8995766035872 38.779915320724044 53.89957660358722
498 O499 33.799165945050525 43.77820638677829 58.99827832817805
499 O500 41.572954771756166 57.95325089487 65.39953400957222
500 O501 48.070075097907505 63.27263082466905 64.22179361322672
501 O502 53.89957660359417 66.10042339640587 61.22008467928294
502 O503 58.998278328186785 66.20083405494077 56.22179361323049
503 O504 63.429361232314776 63.80965735541344 49.3995340095798
504 O505 65.39953400958049 58.42704522823558 42.04674910513828
505 O506 61.220084679285456 46.10042339640332 33.899576603596685
506 O507 56.22179361322952 41.00172167181419 33.7991659450583
507 O508 49.39953400957493 36.57063876769012 36.19034264458172
508 O509 45.06070250866037 27.44487305344393 56.4034084312369
509 O510 42.232909936920535 30.446581987390708 62.23290993692056
510 O511 42.13249927838385 35.44487305344494 67.33161166151137
511 O512 44.52367597791047 42.267132657096326 71.76269456563867
512 O513 49.9062881050895 49.61991756153667 73.73286734290554
513 O514 56.403408431240805 54.93929749133572 72.55512694656004
514 O515 62.23290993692749 57.76709006307254 69.55341801261626
515 O516 67.33161166152013 57.86750072160741 64.55512694656382
516 O517 71.7626945656481 55.47632402208011 57.73286734291314
517 O518 73.73286734291382 50.09371189490225 50.380082438471604
518 O519 72.55512694656562 43.59659156875359 45.06070250866991
519 O520 69.5534180126188 37.767090063069986 42.23290993693002
520 O521 64.55512694656285 32.66838833848087 42.13249927839162
521 O522 57.73286734290826 28.23730543435678 44.52367597791505
522 O523 58.71341577179683 17.93379932376095 58.23962143842301
523 O524 53.394035841993706 19.11153972011058 64.73674176457023
524 O525 50.56624327025388 22.113248654057355 70.56624327025389
525 O526 50.46583261171719 27.1115397201116 75.66494499484473
526 O527 52.8570093112438 33.93379932376299 80.096027898972
527 O528 58.23962143842284 41.286584228203324 82.06620067623889
528 O529 64.73674176457416 46.605964158002365 80.8884602798934
529 O530 70.56624327026083 49.4337567297392 77.88675134594958
530 O531 75.66494499485346 49.53416738827408 72.88846027989715
531 O532 80.09602789898142 47.14299068874676 66.06620067624648
532 O533 82.06620067624715 41.76037856156891 58.713415771804954
533 O534 80.88846027989898 35.26325823542025 53.39403584200325
534 O535 77.88675134595213 29.43375672973665 50.56624327026336
535 O536 72.88846027989618 24.33505500514751 50.46583261172497
536 O537 66.0662006762416 19.90397210102345 52.85700931124838
537 O538 67.04674910513017 9.600465990427617 66.57295477175633
538 O539 61.72736917532703 10.778206386777255 73.07007509790355
539 O540 58.8995766035872 13.779915320724035 78.89957660358722
540 O541 58.79916594505051 18.77820638677827 83.99827832817806
541 O542 61.190342644577136 25.600465990429665 88.42936123230531
542 O543 66.57295477175616 32.953250894869996 90.3995340095722
543 O544 73.07007509790748 38.272630824669044 89.22179361322672
544 O545 78.89957660359416 41.100423396405866 86.22008467928293
545 O546 83.99827832818679 41.20083405494075 81.2217936132305
546 O547 88.42936123231478 38.80965735541343 74.39953400957981
547 O548 90.39953400958049 33.42704522823558 67.04674910513828
548 O549 89.22179361323231 26.92992490208692 61.72736917533659
549 O550 86.22008467928546 21.10042339640332 58.899576603596685
550 O551 81.22179361322952 16.001721671814177 58.7991659450583
551 O552 74.39953400957494 11.570638767690122 61.19034264458172
552 O553 75.3800824384635 1.2671326570942887 74.90628810508969
553 O554 70.06070250866037 2.444873053443902 81.4034084312369
554 O555 67.23290993692055 5.44658198739068 87.23290993692055
555 O556 67.13249927838385 10.44487305344493 92.33161166151137
556 O557 69.52367597791047 17.267132657096322 96.76269456563867
557 O558 74.9062881050895 24.619917561536656 98.73286734290556
558 O559 81.40340843124083 29.939297491335704 97.55512694656004
559 O560 87.2329099369275 32.76709006307252 94.55341801261625
560 O561 92.33161166152013 32.8675007216074 89.55512694656382
561 O562 96.7626945656481 30.476324022080085 82.73286734291314
562 O563 98.73286734291382 25.093711894902242 75.38008243847162
563 O564 97.55512694656562 18.596591568753578 70.06070250866992
564 O565 94.5534180126188 12.76709006306998 67.23290993693001
565 O566 89.55512694656285 7.66838833848085 67.13249927839163
566 O567 82.73286734290826 3.2373054343567684 69.52367597791505
567 O568 83.71341577179685 92.93379932376095 83.23962143842301
568 O569 78.39403584199373 94.1115397201106 89.73674176457025
569 O570 75.56624327025389 97.11324865405734 95.5662432702539
570 O571 75.46583261171718 2.1115397201116046 0.6649449948447073
571 O572 77.85700931124379 8.933799323763003 5.0960278989719665
572 O573 83.23962143842283 16.286584228203317 7.066200676238887
573 O574 89.73674176457415 21.60596415800238 5.888460279893359
574 O575 95.56624327026083 24.433756729739198 2.8867513459495786
575 O576 0.6649449948534447 24.534167388274085 97.88846027989716
576 O577 5.096027898981426 22.142990688746767 91.0662006762465
577 O578 7.066200676247137 16.76037856156891 83.71341577180496
578 O579 5.888460279898955 10.263258235420256 78.39403584200326
579 O580 2.886751345952121 4.433756729736654 75.56624327026337
580 O581 97.8884602798962 99.33505500514752 75.46583261172498
581 O582 91.0662006762416 94.90397210102344 77.85700931124839
582 O583 94.90397210102344 22.142990688751617 8.933799323758395
583 O584 99.33505500514751 24.534167388275037 2.111539720103807
584 O585 4.433756729736639 24.433756729736643 97.11324865404787
585 O586 10.26325823542024 21.60596415799675 94.11153972010104
586 O587 16.7603785615689 16.28658422819505 92.93379932375284
587 O588 22.14299068874675 8.93379932375353 94.90397210101857
588 O589 24.53416738827407 2.1115397201028454 99.33505500514654
589 O590 24.433756729739187 97.11324865405041 4.433756729739173
590 O591 21.60596415800236 94.11153972010663 10.263258235425841
591 O592 16.286584228203317 92.93379932376111 16.760378561577163
592 O593 8.933799323762983 94.90397210102802 22.142990688756196
593 O594 2.111539720111591 99.33505500515528 24.534167388282814
594 O595 97.11324865405734 4.433756729746112 24.43375672974612
595 O596 94.11153972011057 10.263258235429772 21.60596415800629
596 O597 92.93379932376095 16.760378561576992 16.286584228203154
597 O598 3.237305434356763 30.476324022084956 17.26713265709173
598 O599 7.668388338480847 32.867500721608366 10.44487305343714
599 O600 12.767090063069976 32.76709006306998 5.446581987381194
600 O601 18.596591568753574 29.939297491330088 2.444873053434371
601 O602 25.09371189490224 24.619917561528386 1.2671326570861785
602 O603 30.47632402208008 17.267132657086865 3.2373054343519003
603 O604 32.8675007216074 10.44487305343618 7.66838833847987
604 O605 32.76709006307252 5.446581987383747 12.767090063072505
605 O606 29.939297491335694 2.4448730534399665 18.596591568759173
606 O607 24.61991756153665 1.2671326570944386 25.0937118949105
607 O608 17.26713265709632 3.237305434361337 30.47632402208953
608 O609 10.444873053444926 7.668388338488619 32.86750072161615
609 O610 5.446581987390675 12.767090063079445 32.76709006307945
610 O611 2.4448730534438967 18.596591568763106 29.939297491339623
611 O612 1.2671326570942831 25.09371189491033 24.61991756153649
612 O613 11.570638767690111 38.80965735541829 25.600465990425064
613 O614 16.001721671814174 41.2008340549417 18.778206386770474
614 O615 21.100423396403308 41.100423396403315 13.779915320714542
615 O616 26.92992490208691 38.272630824663416 10.778206386767696
616 O617 33.42704522823557 32.95325089486172 9.600465990419504
617 O618 38.80965735541342 25.600465990420197 11.570638767685226
618 O619 41.200834054940735 18.778206386769515 16.00172167181322
619 O620 41.10042339640586 13.779915320717073 21.100423396405844
620 O621 38.27263082466903 10.778206386773292 26.929924902092512
621 O622 32.95325089486998 9.600465990427786 33.427045228243834
622 O623 25.600465990429655 11.570638767694685 38.809657355422864
623 O624 18.77820638677826 16.001721671821944 41.20083405494948
624 O625 13.779915320724022 21.100423396412783 41.100423396412786
625 O626 10.778206386777246 26.92992490209644 38.27263082467296
626 O627 9.600465990427608 33.427045228243664 32.953250894869825
627 O628 19.903972101023438 47.14299068875162 33.93379932375839
628 O629 24.3350550051475 49.53416738827504 27.111539720103806
629 O630 29.433756729736636 49.43375672973664 22.11324865404787
630 O631 35.26325823542024 46.60596415799675 19.11153972010102
631 O632 41.7603785615689 41.28658422819505 17.93379932375285
632 O633 47.14299068874675 33.93379932375353 19.903972101018574
633 O634 49.53416738827407 27.111539720102844 24.335055005146543
634 O635 49.43375672973919 22.113248654050423 29.433756729739173
635 O636 46.60596415800236 19.11153972010662 35.263258235425845
636 O637 41.28658422820332 17.933799323761114 41.76037856157716
637 O638 33.93379932376298 19.90397210102801 47.1429906887562
638 O639 27.111539720111587 24.33505500515527 49.53416738828281
639 O640 22.11324865405735 29.433756729746115 49.43375672974612
640 O641 19.11153972011057 35.263258235429774 46.605964158006294
641 O642 17.933799323760937 41.76037856157699 41.286584228203154
642 O643 28.237305434356763 55.47632402208495 42.267132657091736
643 O644 32.668388338480845 57.86750072160838 35.44487305343714
644 O645 37.76709006306997 57.76709006306998 30.446581987381194
645 O646 43.59659156875358 54.93929749133009 27.44487305343437
646 O647 50.093711894902235 49.61991756152839 26.26713265708618
647 O648 55.47632402208009 42.26713265708687 28.2373054343519
648 O649 57.8675007216074 35.44487305343618 32.66838833847987
649 O650 57.76709006307252 30.446581987383748 37.76709006307251
650 O651 54.9392974913357 27.444873053439967 43.59659156875918
651 O652 49.61991756153665 26.26713265709446 50.0937118949105
652 O653 42.26713265709632 28.23730543436134 55.47632402208953
653 O654 35.44487305344492 32.66838833848862 57.86750072161615
654 O655 30.446581987390697 37.76709006307945 57.76709006307945
655 O656 27.44487305344392 43.59659156876311 54.93929749133963
656 O657 26.267132657094283 50.09371189491033 49.61991756153649
657 O658 36.57063876769011 63.80965735541828 50.60046599042506
658 O659 41.001721671814174 66.20083405494171 43.77820638677047
659 O660 46.10042339640331 66.10042339640331 38.779915320714544
660 O661 51.92992490208691 63.27263082466341 35.7782063867677
661 O662 58.42704522823556 57.95325089486172 34.60046599041951
662 O663 63.80965735541342 50.6004659904202 36.570638767685224
663 O664 66.20083405494074 43.77820638676951 41.001721671813215
664 O665 66.10042339640584 38.77991532071707 46.100423396405844
665 O666 63.27263082466903 35.77820638677329 51.92992490209251
666 O667 57.95325089486998 34.600465990427786 58.427045228243834
667 O668 50.600465990429655 36.57063876769469 63.809657355422864
668 O669 43.778206386778265 41.00172167182195 66.20083405494948
669 O670 38.77991532072402 46.10042339641278 66.1004233964128
670 O671 35.77820638677724 51.92992490209644 63.27263082467296
671 O672 34.60046599042761 58.42704522824367 57.953250894869825
