_cell_length_a                  100.0
_cell_length_b                  100.0
_cell_length_c                  100.0
_cell_angle_alpha               90.0
_cell_angle_beta                90.0
_cell_angle_gamma               90.0
_symmetry_space_group_name_H-M 'P 1'
_symmetry_Int_Tables_number    '1'

loop_
_atom_site_label
_atom_site_type_symbol
_atom_site_fract_x
_atom_site_fract_y
_atom_site_fract_z
0 O1 0.8460046599042762 0.0842704522824369 0.9204674910513018
1 O2 0.8577820638677726 0.01929924902096447 0.8672736917532704
2 O3 0.8877991532072403 0.9610042339641279 0.8389957660358721
3 O4 0.9377820638677827 0.9100172167182196 0.8379916594505052
4 O5 0.006004659904296661 0.865706387676947 0.8619034264457713
5 O6 0.07953250894870001 0.846004659904278 0.9157295477175617
6 O7 0.1327263082466903 0.857782063867733 0.9807007509790749
7 O8 0.1610042339640585 0.8877991532071708 0.03899576603594157
8 O9 0.1620083405494075 0.9377820638676952 0.08998278328186782
9 O10 0.1380965735541344 0.00600465990420207 0.13429361232314774
10 O11 0.08427045228235563 0.07953250894861741 0.15399534009580496
11 O12 0.019299249020869214 0.13272630824663434 0.14221793613232303
12 O13 0.9610042339640332 0.16100423396403318 0.11220084679285458
13 O14 0.9100172167181418 0.16200834054941726 0.06221793613229526
14 O15 0.8657063876769012 0.1380965735541828 0.9939953400957494
15 O16 0.7744487305344393 0.9359659156876312 0.9506070250866037
16 O17 0.8044658198739071 0.8776709006307946 0.9223290993692055
17 O18 0.8544487305344494 0.8266838833848863 0.9213249927838385
18 O19 0.9226713265709633 0.7823730543436135 0.9452367597791047
19 O20 0.04939297491335726 0.7744487305343998 0.0640340843124082
20 O21 0.07767090063072546 0.8044658198738376 0.12232909936927489
21 O22 0.07867500721607401 0.854448730534362 0.1733161166152013
22 O23 0.054763240220800924 0.9226713265708688 0.217626945656481
23 O24 0.935965915687536 0.04939297491330086 0.2255512694656563
24 O25 0.8776709006306999 0.07767090063069992 0.19553418012618806
25 O26 0.8266838833848086 0.07867500721608378 0.14555126946562857
26 O27 0.7823730543435677 0.054763240220849774 0.07732867342908267
27 O28 0.6793379932376095 0.91760378561577 0.08713415771796845
28 O29 0.6911153972011058 0.8526325823542978 0.03394035841993709
29 O30 0.7211324865405736 0.7943375672974613 0.0056624327025388
30 O31 0.771115397201116 0.7433505500515528 0.004658326117171874
31 O32 0.8393379932376299 0.6990397210102802 0.028570093112438022
32 O33 0.9128658422820333 0.6793379932376112 0.0823962143842284
33 O34 0.9660596415800238 0.6911153972010663 0.14736741764574157
34 O35 0.994337567297392 0.7211324865405043 0.20566243270260826
35 O36 0.9953416738827408 0.7711153972010285 0.25664944994853456
36 O37 0.9714299068874677 0.8393379932375354 0.30096027898981426
37 O38 0.9176037856156891 0.9128658422819507 0.3206620067624715
38 O39 0.8526325823542025 0.9660596415799676 0.30888460279898977
39 O40 0.7943375672973665 0.9943375672973666 0.2788675134595213
40 O41 0.7433505500514751 0.9953416738827505 0.22888460279896194
41 O42 0.6990397210102345 0.9714299068875163 0.16066200676241604
42 O43 0.5960046599042762 0.8342704522824367 0.17046749105130177
43 O44 0.6077820638677726 0.7692992490209645 0.1172736917532704
44 O45 0.6377991532072403 0.7110042339641279 0.08899576603587211
45 O46 0.6877820638677827 0.6600172167182196 0.08799165945050519
46 O47 0.7560046599042967 0.615706387676947 0.11190342644577134
47 O48 0.8295325089487 0.596004659904278 0.16572954771756165
48 O49 0.8827263082466904 0.607782063867733 0.2307007509790749
49 O50 0.9110042339640587 0.6377991532071708 0.28899576603594157
50 O51 0.9120083405494075 0.6877820638676952 0.3399827832818678
51 O52 0.8880965735541343 0.7560046599042021 0.38429361232314774
52 O53 0.8342704522823559 0.8295325089486173 0.40399534009580496
53 O54 0.7692992490208692 0.8827263082466343 0.39221793613232303
54 O55 0.7110042339640332 0.9110042339640332 0.3622008467928546
55 O56 0.6600172167181418 0.9120083405494172 0.31221793613229526
56 O57 0.6157063876769012 0.888096573554183 0.24399534009574936
57 O58 0.5126713265709429 0.7509371189491034 0.25380082438463514
58 O59 0.5244487305344391 0.6859659156876312 0.20060702508660377
59 O60 0.5544658198739069 0.6276709006307946 0.17232909936920549
60 O61 0.6044487305344494 0.5766838833848863 0.1713249927838385
61 O62 0.6726713265709633 0.5323730543436135 0.1952367597791047
62 O63 0.7461991756153666 0.5126713265709445 0.24906288105089502
63 O64 0.799392974913357 0.5244487305343998 0.31403408431240826
64 O65 0.8276709006307253 0.5544658198738376 0.37232909936927494
65 O66 0.8286750072160741 0.6044487305343619 0.4233161166152013
66 O67 0.8047632402208009 0.6726713265708688 0.467626945656481
67 O68 0.7509371189490225 0.7461991756152839 0.4873286734291382
68 O69 0.6859659156875358 0.799392974913301 0.4755512694656563
69 O70 0.6276709006306999 0.8276709006306999 0.44553418012618806
70 O71 0.5766838833848086 0.8286750072160838 0.3955512694656286
71 O72 0.5323730543435677 0.8047632402208497 0.32732867342908273
72 O73 0.42933799323760957 0.66760378561577 0.33713415771796845
73 O74 0.4411153972011057 0.6026325823542978 0.2839403584199371
74 O75 0.4711324865405735 0.5443375672974612 0.2556624327025388
75 O76 0.5893379932376299 0.44903972101028033 0.278570093112438
76 O77 0.6628658422820333 0.4293379932376111 0.3323962143842284
77 O78 0.7160596415800238 0.4411153972010664 0.39736741764574157
78 O79 0.744337567297392 0.4711324865405042 0.45566243270260826
79 O80 0.7214299068874677 0.5893379932375354 0.5509602789898144
80 O81 0.6676037856156891 0.6628658422819507 0.5706620067624716
81 O82 0.6026325823542025 0.7160596415799676 0.5588846027989897
82 O83 0.5443375672973665 0.7443375672973666 0.5288675134595213
83 O84 0.4490397210102346 0.7214299068875163 0.41066200676241604
84 O85 0.41066200676241627 0.4490397210102346 0.7214299068875161
85 O86 0.5288675134595213 0.5443375672973667 0.7443375672973663
86 O87 0.5588846027989897 0.6026325823542027 0.7160596415799674
87 O88 0.5706620067624715 0.6676037856156892 0.6628658422819504
88 O89 0.5509602789898144 0.7214299068874678 0.5893379932375351
89 O90 0.5066494499485346 0.745341673882741 0.5211153972010284
90 O91 0.4556624327026082 0.7443375672973921 0.4711324865405042
91 O92 0.39736741764574157 0.7160596415800239 0.4411153972010664
92 O93 0.3323962143842283 0.6628658422820333 0.4293379932376111
93 O94 0.27857009311243797 0.5893379932376301 0.44903972101028033
94 O95 0.25566243270253897 0.4711324865405735 0.544337567297461
95 O96 0.28394035841993737 0.44111539720110615 0.6026325823542975
96 O97 0.33713415771796873 0.4293379932376098 0.6676037856157698
97 O98 0.3273286734290828 0.5323730543435679 0.8047632402208496
98 O99 0.3955512694656287 0.5766838833848086 0.8286750072160837
99 O100 0.44553418012618806 0.6276709006307 0.8276709006306998
100 O101 0.4755512694656563 0.6859659156875358 0.7993929749133009
101 O102 0.48732867342913844 0.7509371189490226 0.7461991756152838
102 O103 0.4676269456564812 0.8047632402208009 0.6726713265708686
103 O104 0.4233161166152013 0.8286750072160741 0.6044487305343618
104 O105 0.37232909936927516 0.8276709006307253 0.5544658198738375
105 O106 0.31403408431240853 0.7993929749133571 0.5244487305343997
106 O107 0.24906288105089525 0.7461991756153666 0.5126713265709444
107 O108 0.19523675977910493 0.6726713265709634 0.5323730543436134
108 O109 0.1713249927838385 0.6044487305344494 0.5766838833848862
109 O110 0.1723290993692057 0.5544658198739069 0.6276709006307944
110 O111 0.20060702508660366 0.5244487305344392 0.685965915687631
111 O112 0.25380082438463525 0.512671326570943 0.7509371189491032
112 O113 0.2439953400957493 0.6157063876769013 0.8880965735541828
113 O114 0.3122179361322952 0.660017216718142 0.912008340549417
114 O115 0.3622008467928546 0.7110042339640332 0.9110042339640332
115 O116 0.39221793613232325 0.7692992490208693 0.8827263082466341
116 O117 0.40399534009580496 0.8342704522823559 0.8295325089486172
117 O118 0.38429361232314774 0.8880965735541344 0.756004659904202
118 O119 0.3399827832818678 0.9120083405494076 0.687782063867695
119 O120 0.2889957660359417 0.9110042339640587 0.6377991532071707
120 O121 0.23070075097907505 0.8827263082466905 0.6077820638677328
121 O122 0.16572954771756176 0.8295325089487 0.5960046599042779
122 O123 0.11190342644577145 0.7560046599042968 0.6157063876769469
123 O124 0.08799165945050524 0.6877820638677828 0.6600172167182194
124 O125 0.08899576603587223 0.6377991532072405 0.7110042339641278
125 O126 0.1172736917532704 0.6077820638677727 0.7692992490209645
126 O127 0.17046749105130177 0.5960046599042763 0.8342704522824367
127 O128 0.16066200676241627 0.6990397210102346 0.9714299068875162
128 O129 0.22888460279896194 0.7433505500514752 0.9953416738827503
129 O130 0.27886751345952154 0.7943375672973666 0.9943375672973664
130 O131 0.30888460279898977 0.8526325823542027 0.9660596415799675
131 O132 0.3206620067624715 0.9176037856156892 0.9128658422819504
132 O133 0.30096027898981426 0.9714299068874677 0.8393379932375352
133 O134 0.2566494499485348 0.9953416738827409 0.7711153972010285
134 O135 0.20566243270260842 0.9943375672973921 0.7211324865405042
135 O136 0.14736741764574157 0.9660596415800238 0.6911153972010661
136 O137 0.0823962143842285 0.9128658422820334 0.679337993237611
137 O138 0.028570093112437966 0.83933799323763 0.69903972101028
138 O139 0.004658326117171985 0.7711153972011161 0.7433505500515527
139 O140 0.005662432702538744 0.7211324865405737 0.7943375672974611
140 O141 0.033940358419937144 0.6911153972011059 0.8526325823542977
141 O142 0.08713415771796829 0.6793379932376096 0.9176037856157699
142 O143 0.07732867342908278 0.7823730543435679 0.05476324022084955
143 O144 0.14555126946562869 0.8266838833848087 0.07867500721608378
144 O145 0.19553418012618806 0.8776709006307 0.07767090063069981
145 O146 0.2255512694656563 0.935965915687536 0.04939297491330086
146 O147 0.21762694565648122 0.054763240220801146 0.9226713265708686
147 O148 0.1733161166152013 0.07867500721607423 0.8544487305343618
148 O149 0.12232909936927516 0.07767090063072546 0.8044658198738374
149 O150 0.06403408431240809 0.04939297491335726 0.7744487305343997
150 O151 0.9452367597791048 0.9226713265709634 0.7823730543436134
151 O152 0.9213249927838386 0.8544487305344495 0.8266838833848862
152 O153 0.9223290993692055 0.8044658198739072 0.8776709006307944
153 O154 0.9506070250866038 0.7744487305344394 0.935965915687631
154 O155 0.9939953400957494 0.8657063876769013 0.1380965735541828
155 O156 0.062217936132295204 0.910017216718142 0.16200834054941704
156 O157 0.11220084679285458 0.9610042339640333 0.16100423396403318
157 O158 0.15399534009580496 0.08427045228235586 0.07953250894861719
158 O159 0.13429361232314774 0.1380965735541344 0.006004659904201959
159 O160 0.08998278328186782 0.16200834054940794 0.9377820638676951
160 O161 0.03899576603594168 0.16100423396405894 0.8877991532071706
161 O162 0.9807007509790752 0.13272630824669074 0.8577820638677328
162 O163 0.9157295477175618 0.07953250894870001 0.8460046599042778
163 O164 0.8379916594505054 0.937782063867783 0.9100172167182194
164 O165 0.8389957660358721 0.8877991532072406 0.9610042339641278
165 O166 0.8672736917532704 0.8577820638677728 0.01929924902096425
166 O167 0.9204674910513019 0.8460046599042763 0.08427045228243668
167 O168 0.7214299068875161 0.41066200676241627 0.4490397210102346
168 O169 0.7453416738827502 0.47888460279896217 0.4933505500514752
169 O170 0.7443375672973662 0.5288675134595213 0.5443375672973668
170 O171 0.7160596415799673 0.5588846027989897 0.6026325823542028
171 O172 0.6628658422819502 0.5706620067624716 0.6676037856156893
172 O173 0.589337993237535 0.5509602789898144 0.7214299068874679
173 O174 0.5211153972010282 0.5066494499485347 0.7453416738827411
174 O175 0.4711324865405042 0.4556624327026082 0.7443375672973922
175 O176 0.4411153972010664 0.39736741764574157 0.716059641580024
176 O177 0.4293379932376111 0.3323962143842283 0.6628658422820335
177 O178 0.4490397210102801 0.27857009311243797 0.5893379932376303
178 O179 0.5443375672974607 0.2556624327025392 0.4711324865405736
179 O180 0.6026325823542975 0.2839403584199376 0.44111539720110604
180 O181 0.6676037856157696 0.33713415771796873 0.4293379932376098
181 O182 0.8047632402208497 0.3273286734290828 0.5323730543435677
182 O183 0.8286750072160838 0.3955512694656287 0.5766838833848086
183 O184 0.8276709006306999 0.44553418012618806 0.6276709006307
184 O185 0.799392974913301 0.4755512694656563 0.6859659156875358
185 O186 0.7461991756152839 0.48732867342913844 0.7509371189490225
186 O187 0.6726713265708687 0.4676269456564812 0.8047632402208009
187 O188 0.6044487305343618 0.4233161166152015 0.828675007216074
188 O189 0.5544658198738375 0.37232909936927516 0.8276709006307253
189 O190 0.5244487305343997 0.31403408431240853 0.799392974913357
190 O191 0.5126713265709444 0.24906288105089525 0.7461991756153666
191 O192 0.5323730543436134 0.19523675977910493 0.6726713265709633
192 O193 0.5766838833848862 0.1713249927838385 0.6044487305344494
193 O194 0.6276709006307944 0.1723290993692057 0.554465819873907
194 O195 0.6859659156876311 0.20060702508660366 0.5244487305344391
195 O196 0.7509371189491034 0.25380082438463525 0.512671326570943
196 O197 0.888096573554183 0.2439953400957493 0.6157063876769013
197 O198 0.9120083405494172 0.3122179361322952 0.660017216718142
198 O199 0.9110042339640332 0.3622008467928546 0.7110042339640333
199 O200 0.8827263082466342 0.39221793613232303 0.7692992490208693
200 O201 0.8295325089486172 0.40399534009580496 0.8342704522823559
201 O202 0.7560046599042018 0.38429361232314774 0.8880965735541344
202 O203 0.6877820638676951 0.3399827832818678 0.9120083405494077
203 O204 0.6377991532071707 0.2889957660359417 0.9110042339640587
204 O205 0.6077820638677328 0.23070075097907505 0.8827263082466905
205 O206 0.5960046599042779 0.16572954771756176 0.8295325089487
206 O207 0.6157063876769467 0.11190342644577145 0.7560046599042967
207 O208 0.6600172167182193 0.08799165945050502 0.6877820638677828
208 O209 0.7110042339641278 0.08899576603587223 0.6377991532072405
209 O210 0.7692992490209644 0.1172736917532704 0.6077820638677727
210 O211 0.8342704522824366 0.17046749105130177 0.5960046599042763
211 O212 0.9714299068875162 0.16066200676241604 0.6990397210102346
212 O213 0.9953416738827503 0.22888460279896194 0.7433505500514752
213 O214 0.9943375672973664 0.2788675134595213 0.7943375672973667
214 O215 0.9660596415799675 0.30888460279898977 0.8526325823542027
215 O216 0.9128658422819506 0.3206620067624715 0.9176037856156893
216 O217 0.8393379932375353 0.30096027898981426 0.9714299068874678
217 O218 0.7711153972010284 0.2566494499485348 0.995341673882741
218 O219 0.721132486540504 0.20566243270260842 0.994337567297392
219 O220 0.6911153972010661 0.14736741764574157 0.9660596415800238
220 O221 0.6793379932376109 0.0823962143842285 0.9128658422820335
221 O222 0.69903972101028 0.028570093112437966 0.83933799323763
222 O223 0.7433505500515526 0.004658326117171985 0.7711153972011162
223 O224 0.7943375672974611 0.005662432702538744 0.7211324865405737
224 O225 0.8526325823542976 0.033940358419937144 0.691115397201106
225 O226 0.9176037856157699 0.08713415771796829 0.6793379932376097
226 O227 0.05476324022084933 0.07732867342908278 0.782373054343568
227 O228 0.07867500721608378 0.14555126946562869 0.8266838833848087
228 O229 0.0776709006306997 0.19553418012618806 0.8776709006307001
229 O230 0.04939297491330086 0.2255512694656563 0.9359659156875362
230 O231 0.9226713265708685 0.21762694565648122 0.054763240220801146
231 O232 0.8544487305343617 0.1733161166152013 0.07867500721607434
232 O233 0.8044658198738374 0.12232909936927516 0.07767090063072546
233 O234 0.7744487305343994 0.06403408431240853 0.04939297491335737
234 O235 0.7823730543436132 0.9452367597791048 0.9226713265709635
235 O236 0.826683883384886 0.9213249927838386 0.8544487305344496
236 O237 0.8776709006307943 0.9223290993692054 0.8044658198739073
237 O238 0.935965915687631 0.9506070250866037 0.7744487305344395
238 O239 0.1380965735541828 0.9939953400957494 0.8657063876769016
239 O240 0.16200834054941682 0.062217936132295204 0.9100172167181422
240 O241 0.16100423396403296 0.11220084679285458 0.9610042339640334
241 O242 0.07953250894861696 0.15399534009580496 0.08427045228235608
242 O243 0.937782063867695 0.08998278328186782 0.16200834054940771
243 O244 0.8877991532071705 0.03899576603594168 0.16100423396405894
244 O245 0.8577820638677326 0.9807007509790752 0.13272630824669063
245 O246 0.8460046599042776 0.9157295477175618 0.07953250894870023
246 O247 0.9100172167182192 0.8379916594505054 0.937782063867783
247 O248 0.9610042339641276 0.8389957660358722 0.8877991532072407
248 O249 0.08427045228243646 0.9204674910513018 0.8460046599042765
249 O250 0.1539953400957237 0.9157295477175638 0.9204674910513015
250 O251 0.11220084679275955 0.03899576603587285 0.8389957660358721
251 O252 0.062217936132217266 0.08998278328178122 0.8379916594505052
252 O253 0.9204674910513 0.1539953400957228 0.9157295477175618
253 O254 0.8389957660359413 0.11220084679282971 0.03899576603594146
254 O255 0.8379916594505925 0.062217936132305196 0.08998278328186793
255 O256 0.9157295477176441 0.9204674910513831 0.15399534009580496
256 O257 0.038995766035966994 0.8389957660359673 0.11220084679285447
257 O258 0.08998278328185805 0.8379916594505834 0.06221793613229509
258 O259 0.2255512694655608 0.06403408431236945 0.9506070250866036
259 O260 0.19553418012609303 0.12232909936920588 0.9223290993692053
260 O261 0.14555126946555053 0.17331611661511426 0.9213249927838385
261 O262 0.0773286734290366 0.21762694565638707 0.9452367597791047
262 O263 0.9506070250866427 0.22555126946560078 0.06403408431240831
263 O264 0.9223290993692748 0.19553418012616275 0.12232909936927494
264 O265 0.9213249927839259 0.14555126946563846 0.1733161166152013
265 O266 0.9452367597791991 0.07732867342913163 0.217626945656481
266 O267 0.06403408431246405 0.9506070250866995 0.2255512694656563
267 O268 0.12232909936930025 0.9223290993693007 0.19553418012618795
268 O269 0.17331611661519153 0.9213249927839166 0.14555126946562857
269 O270 0.21762694565643237 0.9452367597791508 0.07732867342908256
270 O271 0.32066200676239065 0.0823962143842305 0.08713415771796829
271 O272 0.3088846027988943 0.14736741764570271 0.03394035841993692
272 O273 0.2788675134594265 0.20566243270253937 0.005662432702538744
273 O274 0.228884602798884 0.25664944994844774 0.004658326117171763
274 O275 0.16066200676237008 0.30096027898972033 0.028570093112437966
275 O276 0.08713415771796673 0.3206620067623893 0.08239621438422828
276 O277 0.033940358419976446 0.30888460279893426 0.14736741764574157
277 O278 0.005662432702608244 0.27886751345949623 0.20566243270260842
278 O279 0.00465832611725947 0.22888460279897194 0.25664944994853467
279 O280 0.028570093112532557 0.16066200676246511 0.30096027898981426
280 O281 0.08239621438431088 0.08713415771804978 0.3206620067624716
281 O282 0.14736741764579753 0.033940358420032846 0.3088846027989899
282 O283 0.2056624327026335 0.0056624327026337795 0.2788675134595213
283 O284 0.256649449948525 0.0046583261172501444 0.22888460279896183
284 O285 0.30096027898976585 0.02857009311248415 0.16066200676241593
285 O286 0.40399534009572413 0.16572954771756354 0.17046749105130177
286 O287 0.3922179361322278 0.23070075097903597 0.11727369175327018
287 O288 0.36220084679276 0.2889957660358724 0.088995766035872
288 O289 0.3122179361322175 0.3399827832817812 0.08799165945050491
289 O290 0.24399534009570356 0.3842936123230536 0.11190342644577123
290 O291 0.1704674910513 0.40399534009572236 0.16572954771756176
291 O292 0.1172736917533097 0.3922179361322675 0.23070075097907516
292 O293 0.0889957660359415 0.3622008467928297 0.2889957660359417
293 O294 0.08799165945059251 0.3122179361323052 0.33998278328186793
294 O295 0.11190342644586604 0.24399534009579837 0.38429361232314774
295 O296 0.1657295477176446 0.17046749105138326 0.40399534009580507
296 O297 0.230700750979131 0.1172736917533661 0.39221793613232303
297 O298 0.288995766035967 0.08899576603596726 0.3622008467928546
298 O299 0.3399827832818585 0.08799165945058318 0.3122179361322952
299 O300 0.3842936123230989 0.11190342644581719 0.2439953400957494
300 O301 0.4873286734290574 0.24906288105089702 0.253800824384635
301 O302 0.47555126946556125 0.31403408431236945 0.20060702508660355
302 O303 0.44553418012609347 0.3723290993692059 0.17232909936920549
303 O304 0.39555126946555097 0.42331611661511426 0.1713249927838385
304 O305 0.32732867342903704 0.46762694565638707 0.1952367597791047
305 O306 0.25380082438463347 0.48732867342905606 0.2490628810508949
306 O307 0.2006070250866432 0.4755512694656008 0.3140340843124083
307 O308 0.17232909936927499 0.44553418012616275 0.37232909936927494
308 O309 0.17132499278392643 0.39555126946563846 0.4233161166152015
309 O310 0.19523675977919952 0.32732867342913163 0.4676269456564811
310 O311 0.24906288105097785 0.2538008243847165 0.4873286734291382
311 O312 0.3140340843124645 0.2006070250866996 0.4755512694656563
312 O313 0.3723290993693005 0.1723290993693003 0.44553418012618806
313 O314 0.42331611661519175 0.17132499278391666 0.39555126946562846
314 O315 0.4676269456564328 0.19523675977915067 0.3273286734290827
315 O316 0.5706620067623904 0.3323962143842307 0.33713415771796884
316 O317 0.5588846027988942 0.39736741764570294 0.2839403584199375
317 O318 0.5288675134594266 0.45566243270253937 0.2556624327025392
318 O319 0.478884602798884 0.5066494499484474 0.25465832611717165
319 O320 0.4106620067623701 0.5509602789897201 0.27857009311243797
320 O321 0.33713415771796695 0.5706620067623891 0.3323962143842282
321 O322 0.2839403584199762 0.5588846027989338 0.39736741764574146
322 O323 0.25566243270260824 0.5288675134594962 0.4556624327026081
323 O324 0.254658326117259 0.47888460279897216 0.5066494499485346
324 O325 0.27857009311253234 0.41066200676246534 0.5509602789898141
325 O326 0.3323962143843109 0.33713415771805 0.5706620067624714
326 O327 0.3973674176457975 0.28394035842003307 0.5588846027989895
327 O328 0.4556624327026335 0.2556624327026342 0.5288675134595211
328 O329 0.506649449948525 0.25465832611725014 0.4788846027989623
329 O330 0.5509602789897656 0.27857009311248415 0.4106620067624164
330 O331 0.05096027898976557 0.7785700931124842 0.08933799323758362
331 O332 0.006649449948524899 0.75465832611725 0.021115397201037722
332 O333 0.9556624327026333 0.755662432702634 0.9711324865404789
333 O334 0.8973674176457973 0.783940358420033 0.9411153972010105
334 O335 0.8323962143843108 0.83713415771805 0.9293379932375286
335 O336 0.7785700931125322 0.9106620067624652 0.9490397210101859
336 O337 0.754658326117259 0.978884602798972 0.9933505500514654
337 O338 0.7556624327026081 0.02886751345949612 0.04433756729739191
338 O339 0.7839403584199762 0.058884602798933705 0.10263258235425854
339 O340 0.8371341577179668 0.07066200676238898 0.16760378561577183
340 O341 0.9106620067623701 0.05096027898972 0.22142990688756203
341 O342 0.9788846027988839 0.006649449948447295 0.24534167388282835
342 O343 0.028867513459426508 0.9556624327025394 0.2443375672974608
343 O344 0.05888460279889407 0.8973674176457027 0.21605964158006252
344 O345 0.07066200676239032 0.8323962143842306 0.16286584228203116
345 O346 0.9676269456564326 0.6952367597791507 0.17267132657091733
346 O347 0.9233161166151916 0.6713249927839166 0.10444873053437154
347 O348 0.8723290993693003 0.6723290993693003 0.05446581987381194
348 O349 0.8140340843124644 0.7006070250866994 0.02444873053434371
349 O350 0.7490628810509778 0.7538008243847163 0.012671326570861785
350 O351 0.6952367597791993 0.8273286734291315 0.03237305434351889
351 O352 0.6713249927839262 0.8955512694656385 0.07668388338479848
352 O353 0.6723290993692749 0.9455341801261627 0.12767090063072506
353 O354 0.7006070250866432 0.9755512694656007 0.1859659156875917
354 O355 0.7538008243846335 0.987328673429056 0.2509371189491051
355 O356 0.8273286734290368 0.9676269456563868 0.3047632402208953
356 O357 0.8955512694655509 0.923316116615114 0.3286750072161615
357 O358 0.9455341801260932 0.8723290993692058 0.3276709006307945
358 O359 0.975551269465561 0.8140340843123692 0.29939297491339645
359 O360 0.9873286734290573 0.7490628810508969 0.24619917561536497
360 O361 0.8842936123230989 0.6119034264458172 0.2560046599042506
361 O362 0.8399827832818585 0.5879916594505832 0.1877820638677048
362 O363 0.7889957660359669 0.588995766035967 0.13779915320714542
363 O364 0.7307007509791308 0.6172736917533659 0.10778206386767697
364 O365 0.6657295477176445 0.6704674910513831 0.09600465990419493
365 O366 0.6119034264458658 0.7439953400957983 0.11570638767685226
366 O367 0.5879916594505925 0.8122179361323051 0.16001721671813207
367 O368 0.5889957660359414 0.8622008467928295 0.21100423396405832
368 O369 0.6172736917533097 0.8922179361322674 0.26929924902092484
369 O370 0.6704674910513 0.9039953400957224 0.33427045228243824
370 O371 0.7439953400957033 0.8842936123230535 0.3880965735542288
371 O372 0.8122179361322173 0.839982783281781 0.4120083405494951
372 O373 0.8622008467927598 0.7889957660358724 0.411004233964128
373 O374 0.8922179361322276 0.7307007509790359 0.3827263082467298
374 O375 0.9039953400957239 0.6657295477175635 0.32953250894869823
375 O376 0.8009602789897656 0.5285700931124839 0.33933799323758407
376 O377 0.756649449948525 0.5046583261172499 0.27111539720103817
377 O378 0.7056624327026335 0.5056624327026338 0.22113248654047868
378 O379 0.6473674176457975 0.5339403584200327 0.19111539720101012
379 O380 0.5823962143843109 0.5871341577180497 0.17933799323752841
380 O381 0.5285700931125324 0.6606620067624649 0.19903972101018574
381 O382 0.5046583261172592 0.7288846027989718 0.24335055005146533
382 O383 0.5056624327026081 0.7788675134594962 0.2943375672973916
383 O384 0.5339403584199763 0.8088846027989341 0.35263258235425843
384 O385 0.5871341577179666 0.8206620067623893 0.4176037856157717
385 O386 0.6606620067623701 0.8009602789897202 0.47142990688756203
386 O387 0.7288846027988839 0.7566494499484476 0.49534167388282824
387 O388 0.7788675134594265 0.7056624327025393 0.49433756729746126
388 O389 0.8088846027988942 0.6473674176457026 0.4660596415800631
389 O390 0.8206620067623904 0.5823962143842303 0.4128658422820317
390 O391 0.7176269456564323 0.44523675977915067 0.42267132657091744
391 O392 0.6733161166151915 0.42132499278391644 0.3544487305343714
392 O393 0.6223290993693001 0.42232909936930063 0.30446581987381205
393 O394 0.564034084312464 0.45060702508669936 0.2744487305343437
394 O395 0.445236759779199 0.5773286734291316 0.282373054343519
395 O396 0.42132499278392577 0.6455512694656385 0.3266838833847987
396 O397 0.42232909936927465 0.6955341801261627 0.37767090063072506
397 O398 0.4506070250866427 0.7255512694656007 0.4359659156875917
398 O399 0.5773286734290366 0.717626945656387 0.5547632402208953
399 O400 0.6455512694655505 0.6733161166151141 0.5786750072161615
400 O401 0.6955341801260928 0.6223290993692058 0.5776709006307947
401 O402 0.7255512694655606 0.5640340843123692 0.5493929749133964
402 O403 0.5899827832818579 0.3379916594505833 0.4377820638677049
403 O404 0.5389957660359668 0.33899576603596715 0.38779915320714553
404 O405 0.4157295477176441 0.42046749105138304 0.34600465990419504
405 O406 0.33799165945059234 0.5622179361323051 0.41001721671813207
406 O407 0.33899576603594117 0.6122008467928297 0.46100423396405854
407 O408 0.4204674910512999 0.6539953400957226 0.5842704522824382
408 O409 0.5622179361322172 0.589982783281781 0.6620083405494948
409 O410 0.6122008467927594 0.5389957660358726 0.6610042339641279
410 O411 0.6539953400957236 0.41572954771756365 0.5795325089486985
411 O412 0.5842704522824365 0.42046749105130166 0.6539953400957235
412 O413 0.4610042339641275 0.3389957660358721 0.6122008467927593
413 O414 0.4100172167182191 0.33799165945050524 0.562217936132217
414 O415 0.34600465990427753 0.41572954771756165 0.42046749105129977
415 O416 0.3577820638677325 0.48070075097907505 0.3672736917533094
416 O417 0.3877991532071704 0.5389957660359415 0.33899576603594106
417 O418 0.4377820638676949 0.5899827832818678 0.3379916594505923
418 O419 0.579532508948617 0.653995340095805 0.4157295477176439
419 O420 0.6610042339640329 0.6122008467928544 0.5389957660359666
420 O421 0.6620083405494168 0.5622179361322951 0.5899827832818578
421 O422 0.6380965735541826 0.4939953400957493 0.6342936123230984
422 O423 0.4359659156876309 0.45060702508660355 0.7255512694655605
423 O424 0.3776709006307943 0.42232909936920526 0.6955341801260927
424 O425 0.32668388338488585 0.4213249927838385 0.6455512694655504
425 O426 0.2823730543436131 0.4452367597791047 0.5773286734290365
426 O427 0.2744487305343994 0.5640340843124083 0.45060702508664263
427 O428 0.30446581987383725 0.6223290993692749 0.42232909936927454
428 O429 0.35444873053436154 0.6733161166152013 0.42132499278392566
429 O430 0.42267132657086837 0.717626945656481 0.44523675977919885
430 O431 0.49619917561528365 0.7373286734291382 0.4990628810509773
431 O432 0.5493929749133007 0.7255512694656562 0.5640340843124638
432 O433 0.5776709006306995 0.695534180126188 0.6223290993692999
433 O434 0.5786750072160836 0.6455512694656285 0.6733161166151913
434 O435 0.5547632402208493 0.5773286734290826 0.717626945656432
435 O436 0.41760378561576983 0.5871341577179683 0.8206620067623903
436 O437 0.3526325823542975 0.5339403584199369 0.808884602798894
437 O438 0.2943375672974609 0.5056624327025387 0.7788675134594263
438 O439 0.24335055005155246 0.5046583261171718 0.7288846027988838
439 O440 0.19903972101027986 0.528570093112438 0.66066200676237
440 O441 0.17933799323761085 0.5823962143842284 0.5871341577179665
441 O442 0.19111539720106596 0.6473674176457416 0.5339403584199762
442 O443 0.2211324865405039 0.7056624327026083 0.505662432702608
443 O444 0.2711153972010283 0.7566494499485346 0.504658326117259
444 O445 0.33933799323753516 0.8009602789898143 0.5285700931125322
445 O446 0.41286584228195045 0.8206620067624715 0.5823962143843107
446 O447 0.4660596415799674 0.8088846027989898 0.6473674176457973
447 O448 0.49433756729736633 0.7788675134595212 0.7056624327026333
448 O449 0.49534167388275024 0.7288846027989618 0.7566494499485248
449 O450 0.47142990688751607 0.6606620067624159 0.8009602789897654
450 O451 0.33427045228243646 0.6704674910513018 0.9039953400957237
451 O452 0.26929924902096425 0.6172736917532703 0.8922179361322273
452 O453 0.2110042339641277 0.588995766035872 0.8622008467927595
453 O454 0.16001721671821925 0.587991659450505 0.8122179361322172
454 O455 0.11570638767694666 0.6119034264457713 0.7439953400957033
455 O456 0.0960046599042777 0.6657295477175618 0.6704674910513
456 O457 0.10778206386773267 0.730700750979075 0.6172736917533095
457 O458 0.1377991532071706 0.7889957660359417 0.5889957660359413
458 O459 0.18778206386769503 0.8399827832818678 0.5879916594505923
459 O460 0.2560046599042018 0.8842936123231477 0.6119034264458656
460 O461 0.3295325089486171 0.903995340095805 0.6657295477176441
461 O462 0.3827263082466341 0.8922179361323229 0.7307007509791307
462 O463 0.41100423396403307 0.8622008467928546 0.7889957660359667
463 O464 0.41200834054941704 0.8122179361322951 0.839982783281858
464 O465 0.38809657355418287 0.7439953400957493 0.8842936123230987
465 O466 0.25093711894910325 0.753800824384635 0.987328673429057
466 O467 0.18596591568763096 0.7006070250866037 0.9755512694655609
467 O468 0.12767090063079437 0.6723290993692055 0.945534180126093
468 O469 0.07668388338488606 0.6713249927838385 0.8955512694655506
469 O470 0.03237305434361322 0.6952367597791047 0.8273286734290367
470 O471 0.012671326570944219 0.749062881050895 0.7538008243846334
471 O472 0.024448730534399526 0.8140340843124083 0.700607025086643
472 O473 0.054465819873837334 0.8723290993692749 0.6723290993692747
473 O474 0.10444873053436167 0.9233161166152014 0.671324992783926
474 O475 0.17267132657086856 0.967626945656481 0.6952367597791991
475 O476 0.2461991756152838 0.9873286734291382 0.7490628810509775
476 O477 0.29939297491330086 0.9755512694656563 0.8140340843124642
477 O478 0.3276709006306998 0.9455341801261881 0.8723290993693
478 O479 0.3286750072160836 0.8955512694656285 0.9233161166151914
479 O480 0.30476324022084955 0.8273286734290827 0.9676269456564323
480 O481 0.1676037856157695 0.8371341577179687 0.0706620067623902
481 O482 0.1026325823542974 0.7839403584199374 0.05888460279889396
482 O483 0.044337567297460634 0.7556624327025391 0.028867513459426397
483 O484 0.9933505500515528 0.7546583261171715 0.9788846027988837
484 O485 0.94903972101028 0.7785700931124377 0.9106620067623697
485 O486 0.9293379932376111 0.8323962143842281 0.8371341577179665
486 O487 0.9411153972010663 0.8973674176457413 0.783940358419976
487 O488 0.971132486540504 0.955662432702608 0.7556624327026078
488 O489 0.02111539720102809 0.006649449948534558 0.7546583261172589
489 O490 0.08933799323753491 0.050960278989814256 0.7785700931125321
490 O491 0.1628658422819501 0.07066200676247147 0.8323962143843107
491 O492 0.21605964157996713 0.05888460279898955 0.8973674176457972
492 O493 0.24433756729736605 0.02886751345952121 0.9556624327026332
493 O494 0.24534167388275008 0.9788846027989622 0.006649449948524788
494 O495 0.22142990688751596 0.9106620067624163 0.050960278989765406
495 O496 0.42046749105130177 0.3460046599042762 0.4157295477175633
496 O497 0.3672736917532703 0.35778206386777267 0.48070075097903575
497 O498 0.338995766035872 0.38779915320724045 0.5389957660358722
498 O499 0.33799165945050524 0.43778206386778284 0.5899827832817806
499 O500 0.41572954771756165 0.5795325089487 0.6539953400957222
500 O501 0.48070075097907505 0.6327263082466905 0.6422179361322672
501 O502 0.5389957660359417 0.6610042339640587 0.6122008467928294
502 O503 0.5899827832818678 0.6620083405494077 0.5622179361323049
503 O504 0.6342936123231477 0.6380965735541344 0.49399534009579804
504 O505 0.653995340095805 0.5842704522823557 0.4204674910513828
505 O506 0.6122008467928546 0.4610042339640332 0.3389957660359668
506 O507 0.5622179361322952 0.4100172167181419 0.33799165945058296
507 O508 0.4939953400957493 0.3657063876769012 0.3619034264458172
508 O509 0.45060702508660366 0.2744487305344393 0.564034084312369
509 O510 0.4223290993692054 0.3044658198739071 0.6223290993692056
510 O511 0.4213249927838385 0.35444873053444936 0.6733161166151138
511 O512 0.4452367597791047 0.4226713265709633 0.7176269456563866
512 O513 0.499062881050895 0.49619917561536664 0.7373286734290554
513 O514 0.5640340843124081 0.5493929749133573 0.7255512694656003
514 O515 0.6223290993692749 0.5776709006307253 0.6955341801261626
515 O516 0.6733161166152013 0.5786750072160741 0.6455512694656382
516 O517 0.717626945656481 0.554763240220801 0.5773286734291314
517 O518 0.7373286734291382 0.5009371189490225 0.5038008243847161
518 O519 0.7255512694656562 0.4359659156875359 0.45060702508669914
519 O520 0.6955341801261881 0.37767090063069986 0.4223290993693002
520 O521 0.6455512694656285 0.32668388338480864 0.4213249927839162
521 O522 0.5773286734290826 0.2823730543435678 0.44523675977915045
522 O523 0.5871341577179683 0.17933799323760952 0.5823962143842301
523 O524 0.533940358419937 0.19111539720110582 0.6473674176457023
524 O525 0.5056624327025387 0.22113248654057355 0.7056624327025389
525 O526 0.5046583261171719 0.271115397201116 0.7566494499484473
526 O527 0.528570093112438 0.3393379932376299 0.80096027898972
527 O528 0.5823962143842284 0.41286584228203327 0.820662006762389
528 O529 0.6473674176457416 0.46605964158002366 0.8088846027989339
529 O530 0.7056624327026083 0.494337567297392 0.7788675134594958
530 O531 0.7566494499485346 0.49534167388274075 0.7288846027989715
531 O532 0.8009602789898143 0.47142990688746755 0.6606620067624648
532 O533 0.8206620067624715 0.4176037856156891 0.5871341577180496
533 O534 0.8088846027989898 0.35263258235420253 0.5339403584200325
534 O535 0.7788675134595213 0.2943375672973665 0.5056624327026336
535 O536 0.7288846027989618 0.2433505500514751 0.5046583261172497
536 O537 0.660662006762416 0.19903972101023448 0.5285700931124838
537 O538 0.6704674910513018 0.09600465990427617 0.6657295477175633
538 O539 0.6172736917532703 0.10778206386777255 0.7307007509790355
539 O540 0.588995766035872 0.13779915320724034 0.7889957660358722
540 O541 0.5879916594505051 0.1877820638677827 0.8399827832817806
541 O542 0.6119034264457713 0.25600465990429666 0.8842936123230531
542 O543 0.6657295477175617 0.32953250894869995 0.9039953400957221
543 O544 0.7307007509790748 0.3827263082466904 0.8922179361322672
544 O545 0.7889957660359416 0.41100423396405866 0.8622008467928293
545 O546 0.8399827832818678 0.4120083405494075 0.812217936132305
546 O547 0.8842936123231477 0.3880965735541343 0.743995340095798
547 O548 0.903995340095805 0.3342704522823558 0.6704674910513828
548 O549 0.892217936132323 0.2692992490208692 0.6172736917533659
549 O550 0.8622008467928546 0.21100423396403317 0.5889957660359668
550 O551 0.8122179361322952 0.16001721671814179 0.587991659450583
551 O552 0.7439953400957493 0.11570638767690122 0.6119034264458172
552 O553 0.753800824384635 0.012671326570942887 0.7490628810508968
553 O554 0.7006070250866037 0.024448730534439023 0.814034084312369
554 O555 0.6723290993692055 0.05446581987390679 0.8723290993692056
555 O556 0.6713249927838385 0.1044487305344493 0.9233161166151138
556 O557 0.6952367597791047 0.17267132657096324 0.9676269456563866
557 O558 0.749062881050895 0.24619917561536656 0.9873286734290556
558 O559 0.8140340843124083 0.29939297491335704 0.9755512694656003
559 O560 0.8723290993692749 0.32767090063072524 0.9455341801261625
560 O561 0.9233161166152013 0.328675007216074 0.8955512694656382
561 O562 0.967626945656481 0.30476324022080087 0.8273286734291314
562 O563 0.9873286734291382 0.25093711894902243 0.7538008243847162
563 O564 0.9755512694656563 0.18596591568753576 0.7006070250866991
564 O565 0.9455341801261881 0.1276709006306998 0.6723290993693002
565 O566 0.8955512694656286 0.0766838833848085 0.6713249927839163
566 O567 0.8273286734290827 0.032373054343567687 0.6952367597791504
567 O568 0.8371341577179685 0.9293379932376096 0.8323962143842302
568 O569 0.7839403584199373 0.9411153972011059 0.8973674176457025
569 O570 0.7556624327025389 0.9711324865405735 0.955662432702539
570 O571 0.7546583261171718 0.02111539720111605 0.006649449948447073
571 O572 0.7785700931124379 0.08933799323763003 0.050960278989719665
572 O573 0.8323962143842283 0.16286584228203316 0.07066200676238887
573 O574 0.8973674176457415 0.21605964158002378 0.058884602798933594
574 O575 0.9556624327026082 0.24433756729739198 0.028867513459495786
575 O576 0.006649449948534447 0.24534167388274083 0.9788846027989716
576 O577 0.050960278989814256 0.22142990688746766 0.9106620067624649
577 O578 0.07066200676247136 0.1676037856156891 0.8371341577180496
578 O579 0.05888460279898955 0.10263258235420256 0.7839403584200326
579 O580 0.02886751345952121 0.04433756729736654 0.7556624327026337
580 O581 0.978884602798962 0.9933505500514752 0.7546583261172497
581 O582 0.910662006762416 0.9490397210102345 0.7785700931124839
582 O583 0.9490397210102344 0.22142990688751618 0.08933799323758394
583 O584 0.9933505500514751 0.24534167388275036 0.02111539720103807
584 O585 0.04433756729736639 0.24433756729736644 0.9711324865404787
585 O586 0.1026325823542024 0.2160596415799675 0.9411153972010103
586 O587 0.167603785615689 0.1628658422819505 0.9293379932375284
587 O588 0.2214299068874675 0.0893379932375353 0.9490397210101856
588 O589 0.2453416738827407 0.021115397201028452 0.9933505500514654
589 O590 0.24433756729739187 0.9711324865405041 0.04433756729739173
590 O591 0.2160596415800236 0.9411153972010663 0.10263258235425841
591 O592 0.16286584228203316 0.9293379932376111 0.16760378561577163
592 O593 0.08933799323762984 0.9490397210102801 0.22142990688756198
593 O594 0.02111539720111591 0.9933505500515528 0.24534167388282813
594 O595 0.9711324865405735 0.04433756729746112 0.2443375672974612
595 O596 0.9411153972011057 0.10263258235429772 0.2160596415800629
596 O597 0.9293379932376095 0.16760378561576994 0.16286584228203155
597 O598 0.03237305434356763 0.30476324022084955 0.17267132657091727
598 O599 0.07668388338480847 0.32867500721608367 0.10444873053437141
599 O600 0.12767090063069975 0.3276709006306998 0.05446581987381194
600 O601 0.18596591568753573 0.29939297491330086 0.02444873053434371
601 O602 0.2509371189490224 0.24619917561528384 0.012671326570861785
602 O603 0.3047632402208008 0.17267132657086864 0.032373054343519
603 O604 0.328675007216074 0.1044487305343618 0.0766838833847987
604 O605 0.32767090063072524 0.05446581987383747 0.12767090063072506
605 O606 0.2993929749133569 0.024448730534399665 0.18596591568759174
606 O607 0.2461991756153665 0.012671326570944386 0.250937118949105
607 O608 0.17267132657096318 0.03237305434361337 0.3047632402208953
608 O609 0.10444873053444925 0.07668388338488619 0.3286750072161615
609 O610 0.05446581987390675 0.12767090063079445 0.3276709006307945
610 O611 0.024448730534438967 0.18596591568763104 0.2993929749133962
611 O612 0.012671326570942831 0.2509371189491033 0.2461991756153649
612 O613 0.11570638767690111 0.38809657355418287 0.25600465990425064
613 O614 0.16001721671814173 0.41200834054941704 0.18778206386770474
614 O615 0.21100423396403306 0.4110042339640331 0.13779915320714542
615 O616 0.2692992490208691 0.3827263082466342 0.10778206386767697
616 O617 0.3342704522823557 0.3295325089486172 0.09600465990419504
617 O618 0.3880965735541342 0.25600465990420196 0.11570638767685226
618 O619 0.4120083405494074 0.18778206386769514 0.16001721671813218
619 O620 0.41100423396405855 0.13779915320717073 0.21100423396405843
620 O621 0.3827263082466903 0.10778206386773292 0.2692992490209251
621 O622 0.32953250894869984 0.09600465990427787 0.33427045228243835
622 O623 0.25600465990429655 0.11570638767694685 0.38809657355422866
623 O624 0.1877820638677826 0.16001721671821945 0.4120083405494948
624 O625 0.13779915320724023 0.21100423396412782 0.4110042339641279
625 O626 0.10778206386777245 0.2692992490209644 0.3827263082467296
626 O627 0.09600465990427609 0.3342704522824366 0.32953250894869823
627 O628 0.19903972101023437 0.4714299068875162 0.33933799323758396
628 O629 0.243350550051475 0.49534167388275036 0.27111539720103806
629 O630 0.2943375672973664 0.49433756729736644 0.22113248654047868
630 O631 0.3526325823542024 0.4660596415799675 0.19111539720101023
631 O632 0.417603785615689 0.4128658422819505 0.17933799323752853
632 O633 0.4714299068874675 0.33933799323753533 0.19903972101018574
633 O634 0.4953416738827407 0.27111539720102845 0.24335055005146544
634 O635 0.49433756729739187 0.22113248654050421 0.29433756729739174
635 O636 0.4660596415800236 0.19111539720106618 0.35263258235425843
636 O637 0.41286584228203316 0.17933799323761113 0.4176037856157716
637 O638 0.3393379932376298 0.1990397210102801 0.471429906887562
638 O639 0.2711153972011159 0.2433505500515527 0.4953416738828281
639 O640 0.2211324865405735 0.29433756729746113 0.4943375672974612
640 O641 0.1911153972011057 0.35263258235429773 0.4660596415800629
641 O642 0.17933799323760935 0.41760378561576994 0.41286584228203155
642 O643 0.28237305434356763 0.5547632402208496 0.4226713265709173
643 O644 0.32668388338480847 0.5786750072160838 0.3544487305343714
644 O645 0.37767090063069975 0.5776709006306998 0.30446581987381194
645 O646 0.4359659156875358 0.5493929749133009 0.2744487305343437
646 O647 0.5009371189490224 0.49619917561528387 0.2626713265708618
647 O648 0.5547632402208009 0.4226713265708687 0.282373054343519
648 O649 0.578675007216074 0.3544487305343618 0.3266838833847987
649 O650 0.5776709006307252 0.3044658198738375 0.3776709006307251
650 O651 0.549392974913357 0.27444873053439967 0.4359659156875918
651 O652 0.49619917561536653 0.2626713265709446 0.500937118949105
652 O653 0.4226713265709632 0.28237305434361337 0.5547632402208953
653 O654 0.35444873053444925 0.3266838833848862 0.5786750072161615
654 O655 0.304465819873907 0.3776709006307945 0.5776709006307945
655 O656 0.2744487305344392 0.4359659156876311 0.5493929749133963
656 O657 0.26267132657094283 0.5009371189491033 0.4961991756153649
657 O658 0.3657063876769011 0.6380965735541828 0.5060046599042506
658 O659 0.41001721671814173 0.662008340549417 0.43778206386770474
659 O660 0.46100423396403306 0.6610042339640332 0.3877991532071454
660 O661 0.5192992490208691 0.6327263082466341 0.35778206386767697
661 O662 0.5842704522823556 0.5795325089486172 0.34600465990419504
662 O663 0.6380965735541342 0.506004659904202 0.36570638767685226
663 O664 0.6620083405494074 0.43778206386769514 0.4100172167181322
664 O665 0.6610042339640585 0.38779915320717073 0.46100423396405843
665 O666 0.6327263082466903 0.3577820638677329 0.5192992490209251
666 O667 0.5795325089486998 0.34600465990427787 0.5842704522824383
667 O668 0.5060046599042965 0.36570638767694685 0.6380965735542287
668 O669 0.4377820638677826 0.41001721671821945 0.6620083405494948
669 O670 0.38779915320724023 0.4610042339641278 0.6610042339641279
670 O671 0.35778206386777245 0.5192992490209644 0.6327263082467296
671 O672 0.3460046599042761 0.5842704522824367 0.5795325089486982
